results/metrics_generators_bus6508_1.2Hz_100MW.csv
bus_num,pg_init,qg_init,vbus_init,vbus_swing,vbus_max,vbus_min,pg_swing,qg_swing,vt_swing,angle_swing,freq_swing,pg_max,pg_min,qg_max,qg_min,PMAX_MW,PMIN_MW,QMAX_MVAR,QMIN_MVAR,MBASE_MVA,NAME,AREA,ZONE
1032,712.2298717498779,-3.02212238311767,,,,,4.475736618041992,4.37355637550354,0.0013338327407839135,0.4019451141357422,0.007938165633447625,714.4081115722656,709.7491264343262,-2.01480388641357,-6.523269414901731,2560.9999389648438,0.0,917.0,-917.0,2561.0,FCNGN4CC,1,10
1032,856.2767028808594,-3.02212238311767,,,,,5.101776123046875,4.37355637550354,0.0013338327407839135,0.4019451141357422,0.007938165633447625,858.9749336242676,853.6483764648438,-2.01480388641357,-6.523269414901731,2560.9999389648438,0.0,917.0,-917.0,2561.0,FCNGN4CC,1,10
1032,519.9941158294678,-3.02212238311767,,,,,0.2303600311279297,4.37355637550354,0.0013338327407839135,0.4019451141357422,0.007938165633447625,520.1153755187988,519.8850154876709,-2.01480388641357,-6.523269414901731,2560.9999389648438,0.0,917.0,-917.0,2561.0,FCNGN4CC,1,10
1034,1847.2810745239253,242.1187162399292,,,,,14.634132385253906,8.922576904296818,0.0009114742279054955,0.5394706726074219,0.010923541567315453,1854.741096496582,1839.6045684814453,247.49553203582764,238.4360790252685,6326.0,0.0,2218.0,-2218.0,6682.0,SJUAN G4,1,10
1034,2565.395736694336,242.1187162399292,,,,,19.19727325439453,8.922576904296818,0.0009114742279054955,0.5394706726074219,0.010923541567315453,2575.807762145996,2555.885696411133,247.49553203582764,238.4360790252685,6326.0,0.0,2218.0,-2218.0,6682.0,SJUAN G4,1,10
1034,1597.9866027832031,242.1187162399292,,,,,0.4712104797363281,8.922576904296818,0.0009114742279054955,0.5394706726074219,0.010923541567315453,1598.23579788208,1597.7645874023438,247.49553203582764,238.4360790252685,6326.0,0.0,2218.0,-2218.0,6682.0,SJUAN G4,1,10
1131,530.058765411377,-19.05351877212524,,,,,6.079196929931641,2.4147987365722727,0.0005108118057250977,0.25777721405029297,0.004866475917978619,533.1390380859375,526.8567085266113,-18.132805824279778,-20.55013179779052,6202.0,0.0,2224.0,-2224.0,6202.0,CORONADO,1,3
1131,2064.2276763916016,-19.05351877212524,,,,,22.814178466796875,2.4147987365722727,0.0005108118057250977,0.25777721405029297,0.004866475917978619,2077.0675659179688,2053.1681060791016,-18.132805824279778,-20.55013179779052,6202.0,0.0,2224.0,-2224.0,6202.0,CORONADO,1,3
1232,2728.280258178711,1.09630823135375,,,,,28.456497192382812,7.96198844909667,0.0004411935806274414,0.3215713500976562,0.006412335081861897,2742.540740966797,2714.084243774414,4.17737960815429,-3.9402961730956996,6176.0,0.0,1836.0,-1836.0,6176.0,NAVAJO 2,1,3
1232,657.0673942565918,1.09630823135375,,,,,6.902408599853516,7.96198844909667,0.0004411935806274414,0.3215713500976562,0.006412335081861897,660.3344440460205,653.432035446167,4.17737960815429,-3.9402961730956996,6176.0,0.0,1836.0,-1836.0,6176.0,NAVAJO 2,1,3
1331,1986.1026763916016,23.73957633972168,,,,,5.50537109375,1.383829116821289,0.0002645254135131836,0.2102699279785174,0.003960737561591543,1989.518165588379,1984.012794494629,24.132466316223137,22.51520156860351,4495.0,0.0,2060.0,-2060.0,4495.0,HOOVER,1,3
1331,2133.1087112426762,23.73957633972168,,,,,6.2099456787109375,1.383829116821289,0.0002645254135131836,0.2102699279785174,0.003960737561591543,2135.8034133911133,2129.5934677124023,24.132466316223137,22.51520156860351,4495.0,0.0,2060.0,-2060.0,4495.0,HOOVER,1,3
1333,218.11468601226807,27.666303515434258,,,,,1.0204553604125977,0.4355967044830322,0.00031948089599609375,0.2194042205810547,0.003480845652518383,218.56625080108643,217.54536628723145,28.115111589431763,27.58408486843109,9851.999969482422,0.0,4349.0,-4349.0,9852.0,H ALLEN,1,9
1333,3663.8633728027344,27.666303515434258,,,,,14.393234252929688,0.4355967044830322,0.00031948089599609375,0.2194042205810547,0.003480845652518383,3672.191619873047,3657.6515197753915,28.115111589431763,27.58408486843109,9851.999969482422,0.0,4349.0,-4349.0,9852.0,H ALLEN,1,9
1333,1265.996265411377,27.666303515434258,,,,,0.1088142395021805,0.4355967044830322,0.00031948089599609375,0.2194042205810547,0.003480845652518383,1266.055679321289,1265.9398078918455,28.115111589431763,27.58408486843109,9851.999969482422,0.0,4349.0,-4349.0,9852.0,H ALLEN,1,9
1431,5129.132843017578,712.5136375427246,,,,,54.407501220703125,3.2501220703125,0.00045561790466308594,0.3353233337402344,0.00626808138611068,5159.66796875,5105.260467529297,713.448429107666,710.0957870483398,15799.0,0.0,6616.0,-6616.0,15799.0,PALOVRD2,1,3
1431,2355.060768127441,712.5136375427246,,,,,25.652503967286066,3.2501220703125,0.00045561790466308594,0.3353233337402344,0.00626808138611068,2368.467712402344,2342.815208435058,713.448429107666,710.0957870483398,15799.0,0.0,6616.0,-6616.0,15799.0,PALOVRD2,1,3
1431,1353.000259399414,712.5136375427246,,,,,0.19140243530273438,3.2501220703125,0.00045561790466308594,0.3353233337402344,0.00626808138611068,1353.0948638916016,1352.9034614562988,713.448429107666,710.0957870483398,15799.0,0.0,6616.0,-6616.0,15799.0,PALOVRD2,1,3
2030,605.0012588500977,70.1414704322815,,,,,2.238607406616211,0.5366206169128418,0.00033402442932128906,0.21351051330566428,0.002315371165153124,606.25,603.911828994751,71.00536823272705,70.14104127883911,2839.0,0.0,1420.0,-1420.0,2839.0,MEXICO,4,7
2030,1853.0054092407227,70.1414704322815,,,,,5.485534667968295,0.5366206169128418,0.00033402442932128906,0.21351051330566428,0.002315371165153124,1856.6680908203125,1850.8172988891602,71.00536823272705,70.14104127883911,2839.0,0.0,1420.0,-1420.0,2839.0,MEXICO,4,7
2130,573.0061054229736,49.54464435577392,,,,,3.2740116119384766,0.2826690673828196,0.00024330615997314453,0.2537651062011719,0.004771101573673775,574.7587203979492,571.4847087860107,49.63277578353882,49.350106716156,1928.0000610351562,0.0,790.0,-790.0,1928.0,IMPERIAL,2,2
2130,404.0045738220215,49.54464435577392,,,,,2.2370338439941406,0.2826690673828196,0.00024330615997314453,0.2537651062011719,0.004771101573673775,405.33032417297363,403.0932903289795,49.63277578353882,49.350106716156,1928.0000610351562,0.0,790.0,-790.0,1928.0,IMPERIAL,2,2
2130,273.003363609314,49.54464435577392,,,,,1.5676975250243572,0.2826690673828196,0.00024330615997314453,0.2537651062011719,0.004771101573673775,273.76391887664795,272.1962213516236,49.63277578353882,49.350106716156,1928.0000610351562,0.0,790.0,-790.0,1928.0,IMPERIAL,2,2
2130,78.99998426437378,49.54464435577392,,,,,0.006020069122314453,0.2826690673828196,0.00024330615997314453,0.2537651062011719,0.004771101573673775,79.00290489196777,78.9968729019165,49.63277578353882,49.350106716156,1928.0000610351562,0.0,790.0,-790.0,1928.0,IMPERIAL,2,2
2233,285.0037097930908,108.0322623252869,,,,,2.2226572036743164,0.42536258697509766,0.00023829936981201172,0.20019912719726562,0.002313781592754083,286.47563457489014,284.2529773712158,108.20746421813965,107.63626098632812,3605.0001220703125,0.0,1121.0,-453.99999237060547,3605.0,MISSION,2,2
2233,506.0072422027588,108.0322623252869,,,,,3.9450645446777344,0.42536258697509766,0.00023829936981201172,0.20019912719726562,0.002313781592754083,508.6195945739746,504.6745300292969,108.20746421813965,107.63626098632812,3605.0001220703125,0.0,1121.0,-453.99999237060547,3605.0,MISSION,2,2
2233,202.0026683807373,108.0322623252869,,,,,1.5737295150756836,0.42536258697509766,0.00023829936981201172,0.20019912719726562,0.002313781592754083,203.0445098876953,201.47078037261963,108.20746421813965,107.63626098632812,3605.0001220703125,0.0,1121.0,-453.99999237060547,3605.0,MISSION,2,2
2332,877.9999732971191,42.06742346286773,,,,,0.06380081176757812,0.0041425228118896484,0.0002338886260986328,0.5887660980224609,0.00195731998092441,878.0318260192871,877.9680252075195,42.069515585899346,42.065373063087456,1333.0,0.0,590.0,-364.0,1333.0,IMPRLVLY,2,2
2431,499.9995231628418,-45.34481763839721,,,,,0.0461578369140625,0.005701184272759008,0.0003056526184079811,0.5767126083374023,0.0015476076935314609,500.0227928161621,499.97663497924805,-45.34202516078949,-45.34772634506225,1666.0,0.0,800.0,-800.0,1666.0,LUGO,2,2
2434,499.9997615814209,-337.803053855896,,,,,0.02994537353515625,0.02810955047607422,0.00019824504852294922,0.5654363632202166,0.0015821014147192614,500.0150680541992,499.98512268066406,-337.7896785736084,-337.8177881240845,1489.0,0.0,500.0,-500.0,1489.0,VINCENT,2,2
2438,503.00517082214367,22.31106758117675,,,,,1.6592025756835938,1.6491174697876012,0.00021409988403320312,0.23669815063476918,0.0020837704657452605,504.7440528869629,502.73094177246094,25.18431544303894,21.81532382965088,23485.999755859375,-1006.0000610351562,8861.5,-5701.0,23586.0,MESA CAL,2,2
2438,1196.0103034973145,22.31106758117675,,,,,3.9462089538576492,1.6491174697876012,0.00021409988403320312,0.23669815063476918,0.0020837704657452605,1200.1462936401367,1195.3595161437988,25.18431544303894,21.81532382965088,23485.999755859375,-1006.0000610351562,8861.5,-5701.0,23586.0,MESA CAL,2,2
2438,250.99992752075195,22.31106758117675,,,,,0.00934600830078125,1.6491174697876012,0.00021409988403320312,0.23669815063476918,0.0020837704657452605,251.00579261779785,250.99592208862305,25.18431544303894,21.81532382965088,23485.999755859375,-1006.0000610351562,8861.5,-5701.0,23586.0,MESA CAL,2,2
2438,901.0082244873049,22.31106758117675,,,,,2.9750823974609375,1.6491174697876012,0.00021409988403320312,0.23669815063476918,0.0020837704657452605,904.127311706543,900.5171775817871,25.18431544303894,21.81532382965088,23485.999755859375,-1006.0000610351562,8861.5,-5701.0,23586.0,MESA CAL,2,2
2438,233.0031156539917,22.31106758117675,,,,,1.4618158340454102,1.6491174697876012,0.00021409988403320312,0.23669815063476918,0.0020837704657452605,233.77788066864014,232.29131698608398,25.18431544303894,21.81532382965088,23485.999755859375,-1006.0000610351562,8861.5,-5701.0,23586.0,MESA CAL,2,2
2438,703.9999485015869,22.31106758117675,,,,,0.026226043701171875,1.6491174697876012,0.00021409988403320312,0.23669815063476918,0.0020837704657452605,704.0163516998291,703.9886951446533,25.18431544303894,21.81532382965088,23485.999755859375,-1006.0000610351562,8861.5,-5701.0,23586.0,MESA CAL,2,2
2438,1276.0127067565918,22.31106758117675,,,,,3.8737297058103195,1.6491174697876012,0.00021409988403320312,0.23669815063476918,0.0020837704657452605,1279.9428939819336,1275.7153511047363,25.18431544303894,21.81532382965088,23485.999755859375,-1006.0000610351562,8861.5,-5701.0,23586.0,MESA CAL,2,2
2439,999.9998092651367,-242.72618293762207,,,,,0.08296966552734375,0.02815723419189453,0.0002658367156982422,0.5910377502441406,0.0015401367032268354,1000.0431060791016,999.9574661254885,-242.7128553390503,-242.74122714996338,1666.0,0.0,800.0,-800.0,1666.0,MIRALOMA,2,2
2533,1898.9994049072266,127.46388912200928,,,,,0.15945434570267025,0.015115737915039062,0.0002796649932861328,0.5942516326904297,0.001598950882211625,1899.079704284668,1898.917388916016,127.47150659561154,127.4563908576965,1999.0,0.0,1100.0,-820.0,1999.0,S.ONOFRE,2,2
2630,2282.017707824707,184.7835659980774,,,,,4.515075683593295,1.2095928192138388,0.00023055076599121094,0.21106529235839844,0.0020917183277688878,2285.8861923217773,2281.371116638184,185.79180240631104,184.25263166427607,3947.0,0.0,1346.0,-1346.0,3947.0,HAYNES3G,2,2
2631,231.99987411499023,32.0621907711029,,,,,0.014615058898925781,0.0028580427169799805,0.00022172927856445312,0.5890598297119141,0.00153028135431299,232.00721740722656,231.99260234832764,32.0635974407196,32.06073939800262,520.0,0.0,350.0,-350.0,520.0,OLIVE,2,2
2634,1552.8692245483398,-4.27138805389404,,,,,51.186275482177734,20.03905773162841,0.004685759544372559,1.425119400024414,0.02748243522492544,1562.8536224365234,1511.514663696289,2.7839183807373,-17.25513935089111,1618.0,0.0,950.0,-950.0,1900.0,INTERM1G,2,2
2637,83.00256133079529,40.51186442375183,,,,,0.20096302032470703,0.1063317060470581,0.00022292137145996094,0.18896770477294922,0.002234144015254458,83.13217759132385,82.90093541145325,40.63404202461242,40.43002128601074,87.0,0.0,110.0,-110.0,200.0,OWENS G,2,2
2638,200.0049352645874,7.74262547492981,,,,,0.4204154014587971,0.1571446657180795,0.00021207332611083984,0.1895294189453125,0.0022614846606288097,200.2727746963501,199.7892022132873,7.933527231216431,7.5899213552474905,407.0000305175781,0.0,100.0,-100.0,407.0,CASTAI4G,2,2
3135,206.005597114563,80.0737202167511,,,,,1.0313749313354492,0.09480118751525879,0.0001232624053955078,0.2130260467529297,0.0035325067556826184,206.7392349243164,205.70414066314697,80.09462356567383,79.9965500831604,579.0,0.0,339.00001525878906,-286.0,579.0,POTRERO,2,2
3135,14.00040835142135,80.0737202167511,,,,,0.07277280092239025,0.09480118751525879,0.0001232624053955078,0.2130260467529297,0.0035325067556826184,14.0521228313446,13.97911161184311,80.09462356567383,79.9965500831604,579.0,0.0,339.00001525878906,-286.0,579.0,POTRERO,2,2
3234,104.00300025939939,11.91131696105003,,,,,0.19779205322265625,0.04657804965973078,7.748603820800781e-05,0.15873336791992188,0.002646638054365269,104.14843559265137,103.95064353942871,11.93260625004768,11.88052892684936,6807.0,0.0,1877.0,-1630.999984741211,6807.0,PITSBURG,2,2
3234,2261.069297790528,11.91131696105003,,,,,4.309082031250455,0.04657804965973078,7.748603820800781e-05,0.15873336791992188,0.002646638054365269,2264.23568725586,2259.9266052246094,11.93260625004768,11.88052892684936,6807.0,0.0,1877.0,-1630.999984741211,6807.0,PITSBURG,2,2
3234,608.0183029174805,11.91131696105003,,,,,1.1591911315917969,0.04657804965973078,7.748603820800781e-05,0.15873336791992188,0.002646638054365269,608.8698863983154,607.7106952667236,11.93260625004768,11.88052892684936,6807.0,0.0,1877.0,-1630.999984741211,6807.0,PITSBURG,2,2
3234,1020.9985733032229,11.91131696105003,,,,,0.0141143798828125,0.04657804965973078,7.748603820800781e-05,0.15873336791992188,0.002646638054365269,1021.0075378417969,1020.9925651550291,11.93260625004768,11.88052892684936,6807.0,0.0,1877.0,-1630.999984741211,6807.0,PITSBURG,2,2
3333,620.0319766998291,124.77760314941406,,,,,0.8352279663085938,0.3416776657104492,0.00011289119720481189,0.13622093200683594,0.0022137974884799405,620.6996917724609,619.8635101318359,124.92622137069702,124.48842525482178,1324.0,0.0,600.0,-369.0,1324.0,METCALF,2,2
3333,191.00914001464844,124.77760314941406,,,,,0.2577781677246378,0.3416776657104492,0.00011289119720481189,0.13622093200683594,0.0022137974884799405,191.2157654762268,190.95786809921265,124.92622137069702,124.48842525482178,1324.0,0.0,600.0,-369.0,1324.0,METCALF,2,2
3433,481.0155391693115,20.12952119112014,,,,,0.9393215179443359,0.30311644077301025,9.34600830078125e-05,0.15555763244628906,0.002387537752341018,481.81562423706055,480.8655261993408,20.33258080482483,19.99829113483429,2347.0,0.0,1170.0000610351562,-737.0,2347.0,MC CALL,2,2
3433,744.9989318847656,20.12952119112014,,,,,0.017881393432730874,0.30311644077301025,9.34600830078125e-05,0.15555763244628906,0.002387537752341018,745.0087547302246,744.9898242950438,20.33258080482483,19.99829113483429,2347.0,0.0,1170.0000610351562,-737.0,2347.0,MC CALL,2,2
3531,783.0127716064453,53.70367765426636,,,,,3.1672000885009766,0.43341517448425293,0.00013971328735351562,0.22824668884277344,0.003688284851371293,784.8183631896973,781.5995216369629,53.942424058914185,53.50404977798462,1981.0,0.0,1270.0,-790.0,1981.0,FULTON,2,2
3531,293.00479888916016,53.70367765426636,,,,,1.1851310729981037,0.43341517448425293,0.00013971328735351562,0.22824668884277344,0.003688284851371293,293.68066787719727,292.475700378418,53.942424058914185,53.50404977798462,1981.0,0.0,1270.0,-790.0,1981.0,FULTON,2,2
3531,13.00020217895507,53.70367765426636,,,,,0.05376189947128118,0.43341517448425293,0.00013971328735351562,0.22824668884277344,0.003688284851371293,13.027575612068171,12.972059845924369,53.942424058914185,53.50404977798462,1981.0,0.0,1270.0,-790.0,1981.0,FULTON,2,2
3631,30.00214695930481,-13.99887353181839,,,,,0.19603073596955056,0.0624582171440089,0.00020420551300048828,0.15747833251953125,0.002669527896991042,30.10408878326416,29.90805804729461,-13.94359469413757,-14.059782028198239,305.99998474121094,0.0,94.0,-48.0,306.0,HUMBOLDT,2,2
3631,67.00470447540283,-13.99887353181839,,,,,0.40381550788879395,0.0624582171440089,0.00020420551300048828,0.15747833251953125,0.002669527896991042,67.27865934371948,66.87484383583069,-13.94359469413757,-14.059782028198239,305.99998474121094,0.0,94.0,-48.0,306.0,HUMBOLDT,2,2
3731,222.27416038513184,-120.88282108306885,,,,,2.1980762481689453,0.7960081100463867,0.0007263422012331322,0.3191623687744145,0.006615959306941477,223.10094833374023,220.9028720855713,-120.68921327590942,-121.61985635757446,243.0,0.0,200.0,-121.0,400.0,SUMMIT,1,9
3831,2108.03337097168,-40.83565175533294,,,,,2.2830963134765625,0.7136225700378418,0.00011074542999267578,0.16123390197753906,0.0022424097917621566,2109.476661682129,2107.1346282958984,-40.59715270996094,-41.62324666976928,2323.0,0.0,1175.0,-980.0,2323.0,DIABLO1,2,2
3835,229.02188301086426,34.76245403289795,,,,,2.8105974197387695,0.6768643856048655,0.00010728836059548108,0.172607421875,0.0027326339214752693,231.27107620239258,228.4214973449707,35.07780432701111,33.91052782535553,3358.0,-510.0,1162.5,-979.0,3458.0,MIDWAY,2,2
3835,149.99992847442627,34.76245403289795,,,,,0.004887580871582031,0.6768643856048655,0.00010728836059548108,0.172607421875,0.0027326339214752693,150.00234842300415,149.99746084213257,35.07780432701111,33.91052782535553,3358.0,-510.0,1162.5,-979.0,3458.0,MIDWAY,2,2
3836,679.0153980255127,-6.8163007497787405,,,,,2.2819042205810547,0.3717422485351589,0.00011730194091796875,0.16947364807128906,0.002926561754883039,680.7956218719482,678.4530162811279,-6.672060489654539,-7.10293650627136,1497.0,0.0,476.0000305175781,-352.0,1497.0,MORROBAY,2,2
3931,235.02202033996582,23.54487180709839,,,,,0.8805751800537109,0.8794277906417811,0.00039052963256813733,0.11846542358398415,0.0021305038944490207,235.46748161315918,234.58690643310547,25.053241848945618,23.26576262712478,3442.0,0.0,1435.0,-1061.0,3442.0,ROUND MT,2,2
3931,1212.104034423828,23.54487180709839,,,,,3.037834167480696,0.8794277906417811,0.00039052963256813733,0.11846542358398415,0.0021305038944490207,1213.3569717407229,1210.224151611328,25.053241848945618,23.26576262712478,3442.0,0.0,1435.0,-1061.0,3442.0,ROUND MT,2,2
3932,1354.9965858459473,-242.7767276763916,,,,,0.051403045654296875,0.01280307769781075,0.00013947486877441406,0.6037099361419682,0.0018087744396737548,1355.0263404846191,1354.9749374389648,-242.7709579467773,-242.78430938720703,1426.0,0.0,1150.0,-500.0,1426.0,MOSSLAND,2,2
3933,403.7648677825928,56.63406848907471,,,,,0.7570743560791016,0.33701658248901367,0.00010979175567649158,0.13950538635253884,0.0023064695596843876,404.4057846069336,403.5750389099121,56.87759518623352,56.48881196975708,7933.999938964844,-448.9999694824219,3196.5,-2185.0,8084.0,TESLA,2,2
3933,161.0390543937683,56.63406848907471,,,,,0.32809972763061523,0.33701658248901367,0.00010979175567649158,0.13950538635253884,0.0023064695596843876,161.22041940689087,160.83544492721558,56.87759518623352,56.48881196975708,7933.999938964844,-448.9999694824219,3196.5,-2185.0,8084.0,TESLA,2,2
3933,899.4853973388672,56.63406848907471,,,,,1.686859130859375,0.33701658248901367,0.00010979175567649158,0.13950538635253884,0.0023064695596843876,900.9142875671389,899.0626335144043,56.87759518623352,56.48881196975708,7933.999938964844,-448.9999694824219,3196.5,-2185.0,8084.0,TESLA,2,2
3933,1271.5117454528809,56.63406848907471,,,,,2.6559829711914062,0.33701658248901367,0.00010979175567649158,0.13950538635253884,0.0023064695596843876,1272.9071617126465,1269.5489883422852,56.87759518623352,56.48881196975708,7933.999938964844,-448.9999694824219,3196.5,-2185.0,8084.0,TESLA,2,2
3933,345.3965187072754,56.63406848907471,,,,,0.00936985015874825,0.33701658248901367,0.00010979175567649158,0.13950538635253884,0.0023064695596843876,345.40228843688965,345.39270401000977,56.87759518623352,56.48881196975708,7933.999938964844,-448.9999694824219,3196.5,-2185.0,8084.0,TESLA,2,2
3933,622.1797466278076,56.63406848907471,,,,,0.016927719116210938,0.33701658248901367,0.00010979175567649158,0.13950538635253884,0.0023064695596843876,622.1902370452881,622.1728801727295,56.87759518623352,56.48881196975708,7933.999938964844,-448.9999694824219,3196.5,-2185.0,8084.0,TESLA,2,2
4031,893.1103706359863,-386.6048336029053,,,,,3.5892486572265625,3.579568862915096,0.0003453493118286133,0.08751487731933594,0.001523128278492436,895.552921295166,891.954517364502,-385.2534294128418,-389.59896564483637,4724.000061035156,0.0,1481.000015258789,-1481.000015258789,4724.0,MALIN,3,11
4031,313.3075475692749,-386.6048336029053,,,,,1.3480424880981445,3.579568862915096,0.0003453493118286133,0.08751487731933594,0.001523128278492436,313.83700370788574,312.46981620788574,-385.2534294128418,-389.59896564483637,4724.000061035156,0.0,1481.000015258789,-1481.000015258789,4724.0,MALIN,3,11
4031,140.39911031723022,-386.6048336029053,,,,,0.012695789337129781,3.579568862915096,0.0003453493118286133,0.08751487731933594,0.001523128278492436,140.4065728187561,140.39382934570312,-385.2534294128418,-389.59896564483637,4724.000061035156,0.0,1481.000015258789,-1481.000015258789,4724.0,MALIN,3,11
4031,208.79864692687988,-386.6048336029053,,,,,0.018882751464900593,3.579568862915096,0.0003453493118286133,0.08751487731933594,0.001523128278492436,208.8097095489502,208.7907791137696,-385.2534294128418,-389.59896564483637,4724.000061035156,0.0,1481.000015258789,-1481.000015258789,4724.0,MALIN,3,11
4035,173.7274169921875,-37.21365332603454,,,,,0.9512305259704874,0.35466551780699973,0.000213623046875,0.1365184783935547,0.0027488475600065954,174.26352500915527,173.3122944831848,-37.10256814956665,-37.56266832351684,8448.0,0.0,3198.0,-3198.0,8448.0,JOHN DAY,3,11
4035,448.2715606689453,-37.21365332603454,,,,,2.3862361907958984,0.35466551780699973,0.000213623046875,0.1365184783935547,0.0027488475600065954,449.96604919433594,447.57981300354004,-37.10256814956665,-37.56266832351684,8448.0,0.0,3198.0,-3198.0,8448.0,JOHN DAY,3,11
4035,966.7510032653809,-37.21365332603454,,,,,5.24711608886696,0.35466551780699973,0.000213623046875,0.1365184783935547,0.0027488475600065954,969.5259094238279,964.2787933349609,-37.10256814956665,-37.56266832351684,8448.0,0.0,3198.0,-3198.0,8448.0,JOHN DAY,3,11
4035,697.4984169006348,-37.21365332603454,,,,,0.03361701965332031,0.35466551780699973,0.000213623046875,0.1365184783935547,0.0027488475600065954,697.5167751312256,697.4831581115723,-37.10256814956665,-37.56266832351684,8448.0,0.0,3198.0,-3198.0,8448.0,JOHN DAY,3,11
4039,77.4055540561676,29.730689525604248,,,,,0.2246379852294922,0.052613019943237305,0.0001842975616455078,0.138885498046875,0.0027742012398661586,77.56543159484863,77.34079360961914,29.75912690162658,29.66585755348205,4279.0,0.0,2061.0,-2061.0,4279.0,DALLES21,3,13
4039,1455.4049491882324,29.730689525604248,,,,,4.329490661621321,0.052613019943237305,0.0001842975616455078,0.138885498046875,0.0027742012398661586,1457.7192306518557,1453.3897399902344,29.75912690162658,29.66585755348205,4279.0,0.0,2061.0,-2061.0,4279.0,DALLES21,3,13
4039,712.7989292144775,29.730689525604248,,,,,0.03247261047363281,0.052613019943237305,0.0001842975616455078,0.138885498046875,0.0027742012398661586,712.8148555755615,712.7823829650879,29.75912690162658,29.66585755348205,4279.0,0.0,2061.0,-2061.0,4279.0,DALLES21,3,13
4131,450.0062942504883,43.45670342445373,,,,,1.6194343566894531,1.1930763721466136,0.0005308389663696289,0.1823101043701172,0.00308138610713371,450.93140602111816,449.3119716644287,45.25010585784912,43.24941337108612,14114.0,0.0,6752.0000076293945,-6752.0000076293945,14114.0,COULEE,3,13
4131,7418.795013427734,43.45670342445373,,,,,24.062347412109375,1.1930763721466136,0.0005308389663696289,0.1823101043701172,0.00308138610713371,7431.773376464844,7407.711029052734,45.25010585784912,43.24941337108612,14114.0,0.0,6752.0000076293945,-6752.0000076293945,14114.0,COULEE,3,13
4131,555.2996635437012,43.45670342445373,,,,,0.06570816040039062,1.1930763721466136,0.0005308389663696289,0.1823101043701172,0.00308138610713371,555.3336143493652,555.2679061889648,45.25010585784912,43.24941337108612,14114.0,0.0,6752.0000076293945,-6752.0000076293945,14114.0,COULEE,3,13
4132,1854.9468994140625,56.65440559387207,,,,,3.5287857055659515,0.6885945796966553,0.0001933574676513672,0.1403484344482422,0.002824511206490854,1857.4775695800781,1853.9487838745122,57.24841356277466,55.82175254821777,9209.0,0.0,4711.0,-4711.0,9309.0,HANFORD,3,13
4132,3835.9268188476562,56.65440559387207,,,,,9.403610229492188,0.6885945796966553,0.0001933574676513672,0.1403484344482422,0.002824511206490854,3841.115951538086,3831.7123413085938,57.24841356277466,55.82175254821777,9209.0,0.0,4711.0,-4711.0,9309.0,HANFORD,3,13
4132,900.0270843505859,56.65440559387207,,,,,2.023887634277571,0.6885945796966553,0.0001933574676513672,0.1403484344482422,0.002824511206490854,901.2044906616213,899.1806030273438,57.24841356277466,55.82175254821777,9209.0,0.0,4711.0,-4711.0,9309.0,HANFORD,3,13
4132,269.9995279312134,56.65440559387207,,,,,0.011658668518066406,0.6885945796966553,0.0001933574676513672,0.1403484344482422,0.002824511206490854,270.0054883956909,269.99382972717285,57.24841356277466,55.82175254821777,9209.0,0.0,4711.0,-4711.0,9309.0,HANFORD,3,13
4231,999.0164756774902,357.3494434356689,,,,,2.7168273925778976,1.0058879852294922,0.00023603439331076892,0.15816879272460893,0.002794468288030316,1000.5971908569336,997.8803634643557,358.2444667816162,356.7301988601685,5946.999755859375,0.0,3195.0,-3195.0,5947.0,NORTH G3,3,13
4231,664.21217918396,357.3494434356689,,,,,1.7118930816651527,1.0058879852294922,0.00023603439331076892,0.15816879272460893,0.002794468288030316,665.4584407806396,663.7369155883789,358.2444667816162,356.7301988601685,5946.999755859375,0.0,3195.0,-3195.0,5947.0,NORTH G3,3,13
4231,2406.650733947754,357.3494434356689,,,,,6.729698181152344,1.0058879852294922,0.00023603439331076892,0.15816879272460893,0.002794468288030316,2410.244560241699,2403.514862060547,358.2444667816162,356.7301988601685,5946.999755859375,0.0,3195.0,-3195.0,5947.0,NORTH G3,3,13
4232,348.33362102508545,-4.16876971721649,,,,,1.305699348449707,0.32546818256377996,0.00019598007202170642,0.13475799560546697,0.0027053727547325934,349.276065826416,347.9703664779663,-3.9314329624176,-4.55342531204223,2125.0,0.0,987.0000076293945,-987.0000076293945,2125.0,WCASCADE,3,13
4232,222.3217487335205,-4.16876971721649,,,,,0.8479118347167969,0.32546818256377996,0.00019598007202170642,0.13475799560546697,0.0027053727547325934,222.78265953063965,221.93474769592285,-3.9314329624176,-4.55342531204223,2125.0,0.0,987.0000076293945,-987.0000076293945,2125.0,WCASCADE,3,13
4232,316.79933071136475,-4.16876971721649,,,,,0.014781951904296875,0.32546818256377996,0.00019598007202170642,0.13475799560546697,0.0027053727547325934,316.80684089660645,316.79203510284424,-3.9314329624176,-4.55342531204223,2125.0,0.0,987.0000076293945,-987.0000076293945,2125.0,WCASCADE,3,13
5031,821.7019081115723,129.18004989624023,,,,,1.5317916870117188,0.4298210144042969,6.842613220214844e-05,0.2370624542236346,0.0019119376887601902,823.551082611084,821.7019081115723,129.66160774230957,128.9333701133728,13397.0,0.0,5004.0,-5004.0,13397.0,CANAD G1,3,4
5031,5976.013946533203,129.18004989624023,,,,,6.9011688232421875,0.4298210144042969,6.842613220214844e-05,0.2370624542236346,0.0019119376887601902,5980.832290649414,5972.602081298828,129.66160774230957,128.9333701133728,13397.0,0.0,5004.0,-5004.0,13397.0,CANAD G1,3,4
5032,3646.8048095703125,600.9272575378418,,,,,13.922882080078125,1.8972396850585938,0.00012123584747314453,0.27744770050049006,0.002821332061678561,3654.439926147461,3639.613723754883,601.1194229125977,599.2221832275391,27734.200202941895,0.0,7707.000003814697,-7707.000003814697,27734.2001953125,CMAIN GM,3,1
5032,2695.5028533935547,600.9272575378418,,,,,8.215522766113281,1.8972396850585938,0.00012123584747314453,0.27744770050049006,0.002821332061678561,2701.992416381836,2693.7768936157227,601.1194229125977,599.2221832275391,27734.200202941895,0.0,7707.000003814697,-7707.000003814697,27734.2001953125,CMAIN GM,3,1
5032,66.60003662109375,600.9272575378418,,,,,0.11194944381713867,1.8972396850585938,0.00012123584747314453,0.27744770050049006,0.002821332061678561,66.66204929351807,66.54267311096191,601.1194229125977,599.2221832275391,27734.200202941895,0.0,7707.000003814697,-7707.000003814697,27734.2001953125,CMAIN GM,3,1
5032,2701.799964904785,600.9272575378418,,,,,0.04234313964889225,1.8972396850585938,0.00012123584747314453,0.27744770050049006,0.002821332061678561,2701.8274307250977,2701.779556274414,601.1194229125977,599.2221832275391,27734.200202941895,0.0,7707.000003814697,-7707.000003814697,27734.2001953125,CMAIN GM,3,1
5032,331.2000036239624,600.9272575378418,,,,,0.00514984130859375,1.8972396850585938,0.00012123584747314453,0.27744770050049006,0.002821332061678561,331.20336532592773,331.1975240707397,601.1194229125977,599.2221832275391,27734.200202941895,0.0,7707.000003814697,-7707.000003814697,27734.2001953125,CMAIN GM,3,1
6132,45.13970017433166,-11.18389591574668,,,,,0.6486505270004201,1.4531478285789508,0.0026961565017700195,0.5560569763183594,0.010454617707836178,45.35872340202331,44.67925429344177,-10.663635283708569,-12.11678311228752,5302.999938964844,0.0,1523.999984741211,-1523.999984741211,5303.0,MIDPOINT,3,6
6132,1044.8516845703123,-11.18389591574668,,,,,6.468486785888672,1.4531478285789508,0.0026961565017700195,0.5560569763183594,0.010454617707836178,1046.8207359313965,1040.1493072509766,-10.663635283708569,-12.11678311228752,5302.999938964844,0.0,1523.999984741211,-1523.999984741211,5303.0,MIDPOINT,3,6
6132,1996.1492538452148,-11.18389591574668,,,,,13.96484375,1.4531478285789508,0.0026961565017700195,0.5560569763183594,0.010454617707836178,2000.0429153442383,1985.4602813720703,-10.663635283708569,-12.11678311228752,5302.999938964844,0.0,1523.999984741211,-1523.999984741211,5303.0,MIDPOINT,3,6
6132,179.96599674224854,-11.18389591574668,,,,,0.11904239654541016,1.4531478285789508,0.0026961565017700195,0.5560569763183594,0.010454617707836178,180.06035089492798,179.94061708450315,-10.663635283708569,-12.11678311228752,5302.999938964844,0.0,1523.999984741211,-1523.999984741211,5303.0,MIDPOINT,3,6
6132,503.00488471984863,-11.18389591574668,,,,,0.33283233642578125,1.4531478285789508,0.0026961565017700195,0.5560569763183594,0.010454617707836178,503.26857566833496,502.9336929321289,-10.663635283708569,-12.11678311228752,5302.999938964844,0.0,1523.999984741211,-1523.999984741211,5303.0,MIDPOINT,3,6
6231,705.3529262542725,-131.45908117294312,,,,,18.95456314086914,6.578397750854492,0.00050628185272239,0.5843639373779297,0.012036401208071368,714.9731159210205,695.7997322082521,-129.04164791107178,-136.2886667251587,2738.0,0.0,1326.0,-1326.0,2738.0,COLSTRP,3,8
6231,225.02684593200684,-131.45908117294312,,,,,1.5407085418701172,6.578397750854492,0.00050628185272239,0.5843639373779297,0.012036401208071368,225.87106227874762,224.31304454803467,-129.04164791107178,-136.2886667251587,2738.0,0.0,1326.0,-1326.0,2738.0,COLSTRP,3,8
6235,90.01914262771606,9.55960378050804,,,,,2.0985424518585205,2.3292213678360003,0.0028420686721801758,0.7150230407714844,0.014801303449367254,91.1348819732666,89.02413249015808,10.86068749427795,8.39583128690719,3617.0,0.0,606.0,-606.0,3617.0,MONTA G1,3,8
6235,1040.607452392578,9.55960378050804,,,,,17.89493560790993,2.3292213678360003,0.0028420686721801758,0.7150230407714844,0.014801303449367254,1049.3785858154297,1031.1860084533691,10.86068749427795,8.39583128690719,3617.0,0.0,606.0,-606.0,3617.0,MONTA G1,3,8
6235,280.79662322998047,9.55960378050804,,,,,0.2332448959350586,2.3292213678360003,0.0028420686721801758,0.7150230407714844,0.014801303449367254,280.9194564819336,280.6819438934326,10.86068749427795,8.39583128690719,3617.0,0.0,606.0,-606.0,3617.0,MONTA G1,3,8
6333,2839.2343521118164,502.8594970703125,,,,,80.4433822631836,44.417572021484375,0.0013943910598754883,1.2871932983398438,0.026082657765059025,2878.883934020996,2798.4405517578125,518.9801216125488,474.56254959106445,6083.0,0.0,2020.9998779296875,-2020.9998779296875,6083.0,BRIDGER,3,14
6333,919.7310447692873,502.8594970703125,,,,,0.3215789794921875,44.417572021484375,0.0013943910598754883,1.2871932983398438,0.026082657765059025,919.9556350708008,919.6340560913086,518.9801216125488,474.56254959106445,6083.0,0.0,2020.9998779296875,-2020.9998779296875,6083.0,BRIDGER,3,14
6335,2278.4387588500977,637.8600597381592,,,,,42.101287841796875,44.93708610534668,0.0033249855041503906,1.0052299499511719,0.019162931171514686,2296.029853820801,2253.5181045532227,657.7421188354492,612.8050327301025,3380.999969482422,0.0,1704.0,-1704.0,3818.0,NAUGHT,3,14
6335,295.7706928253174,637.8600597381592,,,,,5.636239051818848,44.93708610534668,0.0033249855041503906,1.0052299499511719,0.019162931171514686,298.23198318481445,292.5016164779663,657.7421188354492,612.8050327301025,3380.999969482422,0.0,1704.0,-1704.0,3818.0,NAUGHT,3,14
6335,259.73875522613525,637.8600597381592,,,,,5.705595016479492,44.93708610534668,0.0033249855041503906,1.0052299499511719,0.019162931171514686,262.0734691619873,256.3018798828125,657.7421188354492,612.8050327301025,3380.999969482422,0.0,1704.0,-1704.0,3818.0,NAUGHT,3,14
6433,194.38318014144895,41.24327898025512,,,,,4.887282848358126,1.892372965812683,0.0012491941452026367,0.8084373474121094,0.016946590367190595,196.53681516647336,191.5892958641052,41.70668721199035,39.68861401081085,2663.0,0.0,927.9999961853027,-927.9999961853027,2663.0,VALMY,1,9
6433,372.7361440658569,41.24327898025512,,,,,9.39185619354248,1.892372965812683,0.0012491941452026367,0.8084373474121094,0.016946590367190595,376.8751621246338,367.36786365509033,41.70668721199035,39.68861401081085,2663.0,0.0,927.9999961853027,-927.9999961853027,2663.0,VALMY,1,9
6433,680.3417205810547,41.24327898025512,,,,,16.4703369140625,1.892372965812683,0.0012491941452026367,0.8084373474121094,0.016946590367190595,687.8580570220947,671.2609767913818,41.70668721199035,39.68861401081085,2663.0,0.0,927.9999961853027,-927.9999961853027,2663.0,VALMY,1,9
6433,74.99696016311646,41.24327898025512,,,,,0.024449825286865234,1.892372965812683,0.0012491941452026367,0.8084373474121094,0.016946590367190595,75.0123381614685,74.98788833618164,41.70668721199035,39.68861401081085,2663.0,0.0,927.9999961853027,-927.9999961853027,2663.0,VALMY,1,9
6533,1339.1179084777832,151.55762434005734,,,,,88.02633285522484,81.57167434692386,0.00641179084777832,1.675088882446289,0.03361834366555172,1363.0181312561035,1274.9917984008787,185.11343002319336,103.5417556762695,8587.999755859375,0.0,3399.0,-3399.0,8588.0,EMERY,3,12
6533,1234.6476554870603,151.55762434005734,,,,,110.60771942138672,81.57167434692386,0.00641179084777832,1.675088882446289,0.03361834366555172,1269.840145111084,1158.7920188903809,185.11343002319336,103.5417556762695,8587.999755859375,0.0,3399.0,-3399.0,8588.0,EMERY,3,12
6533,91.76976084709167,151.55762434005734,,,,,9.704077243804932,81.57167434692386,0.00641179084777832,1.675088882446289,0.03361834366555172,94.88815069198608,85.09936332702637,185.11343002319336,103.5417556762695,8587.999755859375,0.0,3399.0,-3399.0,8588.0,EMERY,3,12
6533,565.8535003662109,151.55762434005734,,,,,1.0016918182373047,81.57167434692386,0.00641179084777832,1.675088882446289,0.03361834366555172,566.5964126586914,565.5947208404541,185.11343002319336,103.5417556762695,8587.999755859375,0.0,3399.0,-3399.0,8588.0,EMERY,3,12
6533,157.43145942687988,151.55762434005734,,,,,0.27872323989868164,81.57167434692386,0.00641179084777832,1.675088882446289,0.03361834366555172,157.63816833496094,157.35944509506226,185.11343002319336,103.5417556762695,8587.999755859375,0.0,3399.0,-3399.0,8588.0,EMERY,3,12
7031,1105.8111190795898,318.4489727020264,,,,,5.490970611572038,9.127473831176815,0.0009491443634035424,0.40503311157227273,0.004331584803686894,1108.094596862793,1102.2183418273926,325.1927375793457,315.54765701293945,13088.10000000149,-509.0,5686.0,-5686.0,13188.0,COLOEAST,3,5
7031,2243.9861297607426,318.4489727020264,,,,,8.271408081055142,9.127473831176815,0.0009491443634035424,0.40503311157227273,0.004331584803686894,2248.656272888184,2239.736557006836,325.1927375793457,315.54765701293945,13088.10000000149,-509.0,5686.0,-5686.0,13188.0,COLOEAST,3,5
7031,123.39446544647217,318.4489727020264,,,,,0.9026288986206055,9.127473831176815,0.0009491443634035424,0.40503311157227273,0.004331584803686894,123.77746105194092,122.80851602554318,325.1927375793457,315.54765701293945,13088.10000000149,-509.0,5686.0,-5686.0,13188.0,COLOEAST,3,5
7031,1098.0040550231934,318.4489727020264,,,,,0.14877319335914763,9.127473831176815,0.0009491443634035424,0.40503311157227273,0.004331584803686894,1098.068904876709,1097.9047775268557,325.1927375793457,315.54765701293945,13088.10000000149,-509.0,5686.0,-5686.0,13188.0,COLOEAST,3,5
7032,1058.3017349243164,34.24382209777832,,,,,3.0293464660642258,3.9873123168945312,0.0009148120880126953,0.3920040130615199,0.004103799078045256,1059.4791412353516,1056.009006500244,36.26232147216797,32.22517967224121,4713.9998779296875,0.0,1891.0,-1891.0,4714.0,CRAIG,3,5
7032,861.9541168212891,34.24382209777832,,,,,2.0471572875976562,3.9873123168945312,0.0009148120880126953,0.3920040130615199,0.004103799078045256,862.9921913146973,860.5653762817383,36.26232147216797,32.22517967224121,4713.9998779296875,0.0,1891.0,-1891.0,4714.0,CRAIG,3,5
7032,390.8968448638916,34.24382209777832,,,,,1.159477233886662,3.9873123168945312,0.0009148120880126953,0.3920040130615199,0.004103799078045256,391.2833213806152,390.00332355499273,36.26232147216797,32.22517967224121,4713.9998779296875,0.0,1891.0,-1891.0,4714.0,CRAIG,3,5
7032,428.4064769744873,34.24382209777832,,,,,0.05674362182628556,3.9873123168945312,0.0009148120880126953,0.3920040130615199,0.004103799078045256,428.4364700317383,428.3658027648926,36.26232147216797,32.22517967224121,4713.9998779296875,0.0,1891.0,-1891.0,4714.0,CRAIG,3,5
8033,1182.063102722168,259.747838973999,,,,,1.4776229858398438,0.6082296371459961,0.00015854835510253906,0.11496543884277344,0.001986965506276306,1182.7392578125,1181.0975074768066,260.0893259048462,259.27109718322754,1394.0,0.0,786.0,-786.0,1394.0,COTWDWAP,2,2
8034,2946.0660934448238,418.0652618408203,,,,,4.663658142088934,1.5814781188964844,0.0002976655960083008,0.17527389526367188,0.003159116197743117,2949.505043029785,2944.735145568848,418.2037830352783,416.6203498840332,4298.0,0.0,1624.0,-1624.0,4298.0,RNCHSECO,2,2
8034,427.0092487335205,418.0652618408203,,,,,0.7889270782470703,1.5814781188964844,0.0002976655960083008,0.17527389526367188,0.003159116197743117,427.3393154144287,426.48630142211914,418.2037830352783,416.6203498840332,4298.0,0.0,1624.0,-1624.0,4298.0,RNCHSECO,2,2
